OPT_V10/Two_days_first_run/powerflow_results_t8.txt
Pandapower Network Debug Info
==================================================

BUS:
       vm_pu  va_degree      p_mw    q_mvar
0   0.993094   0.093725  0.000753  0.000978
1   0.988644   0.156844  0.001475  0.001968
2   0.984596   0.210651  0.002250  0.002765
3   0.989377   0.141719  0.002827  0.003437
4   0.989375   0.212945  0.003042  0.004881
5   0.991174   0.169908  0.003843  0.006708
6   0.989497   0.172708  0.001158  0.000958
7   0.997549   0.050250  0.001427  0.002382
8   0.997802   0.035762  0.002327  0.002828
9   0.999832   0.001040  0.011091  0.008184
10  0.999838   0.001049  0.010385  0.010407
11  0.999856   0.000997  0.009869  0.011335
12  0.999769   0.000931  0.010232  0.006426
13  0.999742   0.000873  0.012707  0.008737
14  0.999751   0.000906  0.014272  0.010498
15  0.999931   0.000563  0.000000  0.000000
16  0.999931   0.000568  0.000000  0.000000
17  0.999774   0.000962  0.000000  0.000000
18  0.999774   0.000973  0.000000  0.000000
19  1.000000   0.000000 -0.038789 -0.044166
20  1.000000   0.000006  0.000000  0.000000
21  1.000000   0.000000 -0.049171 -0.048529
22  1.000000   0.000007  0.000000  0.000000
--------------------------------------------------

LINE:
    p_from_mw  q_from_mvar   p_to_mw  q_to_mvar         pl_mw       ql_mvar  i_from_ka   i_to_ka      i_ka  vm_from_pu  va_from_degree  vm_to_pu  va_to_degree  loading_percent
0    0.038779     0.040166 -0.038776  -0.040164  3.049015e-06  2.377367e-06   0.002149  0.002149  0.002149    1.000000        0.000006  0.999931      0.000563         0.934332
1    0.049161     0.044529 -0.049150  -0.044520  1.183462e-05  9.227649e-06   0.002553  0.002553  0.002553    1.000000        0.000007  0.999774      0.000962         1.110023
2    0.031348     0.029928 -0.031345  -0.029926  2.598703e-06  2.026251e-06   0.001668  0.001668  0.001668    0.999931        0.000563  0.999856      0.000997         0.725341
3    0.010232     0.006426 -0.010232  -0.006426  5.050479e-08  3.937942e-08   0.000465  0.000465  0.000465    0.999774        0.000962  0.999769      0.000931         0.202237
4    0.026980     0.019236 -0.026980  -0.019235  6.006270e-07  4.683188e-07   0.001276  0.001276  0.001276    0.999774        0.000962  0.999751      0.000906         0.554640
5    0.007418     0.009236 -0.007353  -0.009185  6.564815e-05  5.118694e-05   0.017100  0.017100  0.017100    0.999931        0.000568  0.993094      0.093725         7.434804
6    0.005070     0.007719 -0.005004  -0.007668  6.620164e-05  5.161851e-05   0.013333  0.013333  0.013333    0.999774        0.000973  0.991174      0.169908         5.797038
7    0.001432     0.002386 -0.001427  -0.002382  5.235393e-06  4.082122e-06   0.004018  0.004018  0.004018    0.999774        0.000973  0.997549      0.050250         1.746944
8    0.005425     0.007753 -0.005410  -0.007741  1.540362e-05  1.201046e-05   0.013662  0.013662  0.013662    0.999774        0.000973  0.997802      0.035762         5.939879
9    0.011091     0.008184 -0.011091  -0.008184  6.572143e-08  5.124408e-08   0.000531  0.000531  0.000531    0.999838        0.001049  0.999832      0.001040         0.230700
10   0.021477     0.018591 -0.021476  -0.018591  3.947247e-07  3.077733e-07   0.001093  0.001093  0.001093    0.999856        0.000997  0.999838      0.001049         0.475427
11   0.012708     0.008737 -0.012707  -0.008737  1.163684e-07  9.073432e-08   0.000594  0.000594  0.000594    0.999751        0.000906  0.999742      0.000873         0.258139
12  -0.003737    -0.004742  0.003759   0.004759  2.206597e-05  1.720520e-05   0.008815  0.008815  0.008815    0.988644        0.156844  0.993094      0.093725         3.832568
13  -0.002827    -0.003437  0.002840   0.003447  1.350813e-05  1.053251e-05   0.006492  0.006492  0.006492    0.989377        0.141719  0.993094      0.093725         2.822692
14  -0.002250    -0.002765  0.002262   0.002774  1.185875e-05  9.246466e-06   0.005226  0.005226  0.005226    0.984596        0.210651  0.988644      0.156844         2.272188
15   0.003083     0.004913 -0.003042  -0.004881  4.112000e-05  3.206194e-05   0.008391  0.008391  0.008391    0.997802        0.035762  0.989375      0.212945         3.648184
16  -0.001158    -0.000958  0.001160   0.000960  2.010050e-06  1.567269e-06   0.002193  0.002193  0.002193    0.989497        0.172708  0.991174      0.169908         0.953543
--------------------------------------------------

TRAFO:
    p_hv_mw  q_hv_mvar   p_lv_mw  q_lv_mvar    pl_mw   ql_mvar   i_hv_ka   i_lv_ka  vm_hv_pu  va_hv_degree  vm_lv_pu  va_lv_degree  loading_percent
0  0.007428   0.010236 -0.007418  -0.009236  0.00001  0.001000  0.000487  0.017100  0.999931      0.000563  0.999931      0.000568         0.126482
1  0.011938   0.018858 -0.011928  -0.017859  0.00001  0.000999  0.000859  0.031005  0.999774      0.000962  0.999774      0.000973         0.223242
2  0.038789   0.044166 -0.038779  -0.040166  0.00001  0.004000  0.000485  0.002149  1.000000      0.000000  1.000000      0.000006         0.146954
3  0.049171   0.048529 -0.049161  -0.044529  0.00001  0.004000  0.000570  0.002553  1.000000      0.000000  1.000000      0.000007         0.172716
--------------------------------------------------
